Dimethylamine
     RDKit          2D

  3  2  0  0  0  0  0  0  0  0999 V2000
   -1.2990   -0.2500    0.0000 C   0  0  0  0  0  0  0  0  0  0  0  0
    0.0000    0.5000    0.0000 N   0  0  0  0  0  0  0  0  0  0  0  0
    1.2990   -0.2500    0.0000 C   0  0  0  0  0  0  0  0  0  0  0  0
  1  2  1  0
  2  3  1  0
M  END
>  <SourceRelation>  (1) 
Decoder-added fragment for explaining DMT's tertiary amine after attachment to the ethyl chain.

>  <Notes>  (1) 
Amine fragment; in DMT the nitrogen is tertiary and has no N-H.

$$$$
