N,N-Dimethyltryptamine
     RDKit          2D

 14 15  0  0  0  0  0  0  0  0999 V2000
   -5.3290   -0.4772    0.0000 C   0  0  0  0  0  0  0  0  0  0  0  0
   -4.0370    0.2848    0.0000 N   0  0  0  0  0  0  0  0  0  0  0  0
   -4.0509    1.7848    0.0000 C   0  0  0  0  0  0  0  0  0  0  0  0
   -2.7310   -0.4530    0.0000 C   0  0  0  0  0  0  0  0  0  0  0  0
   -1.4390    0.3090    0.0000 C   0  0  0  0  0  0  0  0  0  0  0  0
   -0.1331   -0.4289    0.0000 C   0  0  0  0  0  0  0  0  0  0  0  0
    0.0376   -1.9191    0.0000 C   0  0  0  0  0  0  0  0  0  0  0  0
    1.5077   -2.2173    0.0000 N   0  0  0  0  0  0  0  0  0  0  0  0
    2.2456   -0.9114    0.0000 C   0  0  0  0  0  0  0  0  0  0  0  0
    3.7098   -0.5858    0.0000 C   0  0  0  0  0  0  0  0  0  0  0  0
    4.1600    0.8450    0.0000 C   0  0  0  0  0  0  0  0  0  0  0  0
    3.1460    1.9503    0.0000 C   0  0  0  0  0  0  0  0  0  0  0  0
    1.6818    1.6248    0.0000 C   0  0  0  0  0  0  0  0  0  0  0  0
    1.2315    0.1940    0.0000 C   0  0  0  0  0  0  0  0  0  0  0  0
  1  2  1  0
  2  3  1  0
  2  4  1  0
  4  5  1  0
  5  6  1  0
  6  7  2  0
  7  8  1  0
  8  9  1  0
  9 10  2  0
 10 11  1  0
 11 12  2  0
 12 13  1  0
 13 14  2  0
 14  6  1  0
 14  9  1  0
M  END
>  <SourceRelation>  (1) 
The source names 'DMT spirit molecule' metaphorically; the molecular graph here is standard chemistry added by the decoder.

>  <Notes>  (1) 
Indole core + two-carbon side chain + tertiary dimethylamine.

$$$$
